*SPEF "ieee 1481-1999"
*DESIGN "user_proj_example"
*DATE "11:11:11 Fri 11 11, 1111"
*VENDOR "OpenRCX"
*PROGRAM "Parallel Extraction"
*VERSION "1.0"
*DESIGN_FLOW "NAME_SCOPE LOCAL" "PIN_CAP NONE"
*DIVIDER /
*DELIMITER :
*BUS_DELIMITER []
*T_UNIT 1 NS
*C_UNIT 1 PF
*R_UNIT 1 OHM
*L_UNIT 1 HENRY

*NAME_MAP
*1 io_in[0]
*2 io_in[10]
*3 io_in[11]
*4 io_in[12]
*5 io_in[13]
*6 io_in[14]
*7 io_in[15]
*8 io_in[16]
*9 io_in[17]
*10 io_in[18]
*11 io_in[19]
*12 io_in[1]
*13 io_in[20]
*14 io_in[21]
*15 io_in[22]
*16 io_in[23]
*17 io_in[24]
*18 io_in[25]
*19 io_in[26]
*20 io_in[27]
*21 io_in[28]
*22 io_in[29]
*23 io_in[2]
*24 io_in[30]
*25 io_in[31]
*26 io_in[32]
*27 io_in[33]
*28 io_in[34]
*29 io_in[35]
*30 io_in[36]
*31 io_in[37]
*32 io_in[3]
*33 io_in[4]
*34 io_in[5]
*35 io_in[6]
*36 io_in[7]
*37 io_in[8]
*38 io_in[9]
*39 net161
*40 net171
*41 net172
*42 net173
*43 net174
*44 net175
*45 net176
*46 net177
*47 net178
*48 net179
*49 net180
*50 net162
*51 net181
*52 net182
*53 net183
*54 net184
*55 net185
*56 net186
*57 net187
*58 net188
*59 net189
*60 net190
*61 net163
*62 net191
*63 net192
*64 net193
*65 net194
*66 net195
*67 net196
*68 net197
*69 net198
*70 net164
*71 net165
*72 net166
*73 net167
*74 net168
*75 net169
*76 net170
*77 net199
*78 net209
*79 net210
*80 net211
*81 net212
*82 net213
*83 net214
*84 net215
*85 net216
*86 net217
*87 io_out[19]
*88 net200
*89 io_out[20]
*90 io_out[21]
*91 io_out[22]
*92 io_out[23]
*93 io_out[24]
*94 io_out[25]
*95 io_out[26]
*96 net218
*97 net219
*98 net220
*99 net201
*100 net221
*101 net222
*102 net223
*103 net224
*104 net225
*105 net226
*106 net227
*107 net228
*108 net202
*109 net203
*110 net204
*111 net205
*112 net206
*113 net207
*114 net208
*115 net229
*116 net230
*117 net231
*118 la_data_in[0]
*119 la_data_in[100]
*120 la_data_in[101]
*121 la_data_in[102]
*122 la_data_in[103]
*123 la_data_in[104]
*124 la_data_in[105]
*125 la_data_in[106]
*126 la_data_in[107]
*127 la_data_in[108]
*128 la_data_in[109]
*129 la_data_in[10]
*130 la_data_in[110]
*131 la_data_in[111]
*132 la_data_in[112]
*133 la_data_in[113]
*134 la_data_in[114]
*135 la_data_in[115]
*136 la_data_in[116]
*137 la_data_in[117]
*138 la_data_in[118]
*139 la_data_in[119]
*140 la_data_in[11]
*141 la_data_in[120]
*142 la_data_in[121]
*143 la_data_in[122]
*144 la_data_in[123]
*145 la_data_in[124]
*146 la_data_in[125]
*147 la_data_in[126]
*148 la_data_in[127]
*149 la_data_in[12]
*150 la_data_in[13]
*151 la_data_in[14]
*152 la_data_in[15]
*153 la_data_in[16]
*154 la_data_in[17]
*155 la_data_in[18]
*156 la_data_in[19]
*157 la_data_in[1]
*158 la_data_in[20]
*159 la_data_in[21]
*160 la_data_in[22]
*161 la_data_in[23]
*162 la_data_in[24]
*163 la_data_in[25]
*164 la_data_in[26]
*165 la_data_in[27]
*166 la_data_in[28]
*167 la_data_in[29]
*168 la_data_in[2]
*169 la_data_in[30]
*170 la_data_in[31]
*171 la_data_in[32]
*172 la_data_in[33]
*173 la_data_in[34]
*174 la_data_in[35]
*175 la_data_in[36]
*176 la_data_in[37]
*177 la_data_in[38]
*178 la_data_in[39]
*179 la_data_in[3]
*180 la_data_in[40]
*181 la_data_in[41]
*182 la_data_in[42]
*183 la_data_in[43]
*184 la_data_in[44]
*185 la_data_in[45]
*186 la_data_in[46]
*187 la_data_in[47]
*188 la_data_in[48]
*189 la_data_in[49]
*190 la_data_in[4]
*191 la_data_in[50]
*192 la_data_in[51]
*193 la_data_in[52]
*194 la_data_in[53]
*195 la_data_in[54]
*196 la_data_in[55]
*197 la_data_in[56]
*198 la_data_in[57]
*199 la_data_in[58]
*200 la_data_in[59]
*201 la_data_in[5]
*202 la_data_in[60]
*203 la_data_in[61]
*204 la_data_in[62]
*205 la_data_in[63]
*206 la_data_in[64]
*207 la_data_in[65]
*208 la_data_in[66]
*209 la_data_in[67]
*210 la_data_in[68]
*211 la_data_in[69]
*212 la_data_in[6]
*213 la_data_in[70]
*214 la_data_in[71]
*215 la_data_in[72]
*216 la_data_in[73]
*217 la_data_in[74]
*218 la_data_in[75]
*219 la_data_in[76]
*220 la_data_in[77]
*221 la_data_in[78]
*222 la_data_in[79]
*223 la_data_in[7]
*224 la_data_in[80]
*225 la_data_in[81]
*226 la_data_in[82]
*227 la_data_in[83]
*228 la_data_in[84]
*229 la_data_in[85]
*230 la_data_in[86]
*231 la_data_in[87]
*232 la_data_in[88]
*233 la_data_in[89]
*234 la_data_in[8]
*235 la_data_in[90]
*236 la_data_in[91]
*237 la_data_in[92]
*238 la_data_in[93]
*239 la_data_in[94]
*240 la_data_in[95]
*241 la_data_in[96]
*242 la_data_in[97]
*243 la_data_in[98]
*244 la_data_in[99]
*245 la_data_in[9]
*246 net232
*247 net100
*248 net101
*249 net102
*250 net103
*251 net104
*252 net105
*253 net106
*254 net107
*255 net108
*256 net109
*257 net242
*258 net110
*259 net111
*260 net112
*261 net113
*262 net114
*263 net115
*264 net116
*265 net117
*266 net118
*267 net119
*268 net243
*269 net120
*270 net121
*271 net122
*272 net123
*273 net124
*274 net125
*275 net126
*276 net127
*277 net244
*278 net245
*279 net246
*280 net247
*281 net248
*282 net249
*283 net250
*284 net251
*285 net233
*286 net252
*287 net253
*288 net254
*289 net23
*290 net24
*291 net25
*292 net26
*293 net27
*294 net28
*295 net29
*296 net234
*297 net30
*298 net31
*299 net32
*300 net33
*301 net34
*302 net35
*303 net36
*304 net37
*305 net38
*306 net39
*307 net235
*308 net40
*309 net41
*310 net42
*311 net43
*312 net44
*313 net45
*314 net46
*315 net47
*316 net48
*317 net49
*318 net236
*319 net50
*320 net51
*321 net52
*322 net53
*323 net54
*324 net55
*325 net56
*326 net57
*327 net58
*328 net59
*329 net237
*330 net60
*331 net61
*332 net62
*333 net63
*334 net64
*335 net65
*336 net66
*337 net67
*338 net68
*339 net69
*340 net238
*341 net70
*342 net71
*343 net72
*344 net73
*345 net74
*346 net75
*347 net76
*348 net77
*349 net78
*350 net79
*351 net239
*352 net80
*353 net81
*354 net82
*355 net83
*356 net84
*357 net85
*358 net86
*359 net87
*360 net88
*361 net89
*362 net240
*363 net90
*364 net91
*365 net92
*366 net93
*367 net94
*368 net95
*369 net96
*370 net97
*371 net98
*372 net99
*373 net241
*374 la_oenb[0]
*375 la_oenb[100]
*376 la_oenb[101]
*377 la_oenb[102]
*378 la_oenb[103]
*379 la_oenb[104]
*380 la_oenb[105]
*381 la_oenb[106]
*382 la_oenb[107]
*383 la_oenb[108]
*384 la_oenb[109]
*385 la_oenb[10]
*386 la_oenb[110]
*387 la_oenb[111]
*388 la_oenb[112]
*389 la_oenb[113]
*390 la_oenb[114]
*391 la_oenb[115]
*392 la_oenb[116]
*393 la_oenb[117]
*394 la_oenb[118]
*395 la_oenb[119]
*396 la_oenb[11]
*397 la_oenb[120]
*398 la_oenb[121]
*399 la_oenb[122]
*400 la_oenb[123]
*401 la_oenb[124]
*402 la_oenb[125]
*403 la_oenb[126]
*404 la_oenb[127]
*405 la_oenb[12]
*406 la_oenb[13]
*407 la_oenb[14]
*408 la_oenb[15]
*409 la_oenb[16]
*410 la_oenb[17]
*411 la_oenb[18]
*412 la_oenb[19]
*413 la_oenb[1]
*414 la_oenb[20]
*415 la_oenb[21]
*416 la_oenb[22]
*417 la_oenb[23]
*418 la_oenb[24]
*419 la_oenb[25]
*420 la_oenb[26]
*421 la_oenb[27]
*422 la_oenb[28]
*423 la_oenb[29]
*424 la_oenb[2]
*425 la_oenb[30]
*426 la_oenb[31]
*427 la_oenb[32]
*428 la_oenb[33]
*429 la_oenb[34]
*430 la_oenb[35]
*431 la_oenb[36]
*432 la_oenb[37]
*433 la_oenb[38]
*434 la_oenb[39]
*435 la_oenb[3]
*436 la_oenb[40]
*437 la_oenb[41]
*438 la_oenb[42]
*439 la_oenb[43]
*440 la_oenb[44]
*441 la_oenb[45]
*442 la_oenb[46]
*443 la_oenb[47]
*444 la_oenb[48]
*445 la_oenb[49]
*446 la_oenb[4]
*447 la_oenb[50]
*448 la_oenb[51]
*449 la_oenb[52]
*450 la_oenb[53]
*451 la_oenb[54]
*452 la_oenb[55]
*453 la_oenb[56]
*454 la_oenb[57]
*455 la_oenb[58]
*456 la_oenb[59]
*457 la_oenb[5]
*458 la_oenb[60]
*459 la_oenb[61]
*460 la_oenb[62]
*461 la_oenb[63]
*462 la_oenb[64]
*463 la_oenb[65]
*464 la_oenb[66]
*465 la_oenb[67]
*466 la_oenb[68]
*467 la_oenb[69]
*468 la_oenb[6]
*469 la_oenb[70]
*470 la_oenb[71]
*471 la_oenb[72]
*472 la_oenb[73]
*473 la_oenb[74]
*474 la_oenb[75]
*475 la_oenb[76]
*476 la_oenb[77]
*477 la_oenb[78]
*478 la_oenb[79]
*479 la_oenb[7]
*480 la_oenb[80]
*481 la_oenb[81]
*482 la_oenb[82]
*483 la_oenb[83]
*484 la_oenb[84]
*485 la_oenb[85]
*486 la_oenb[86]
*487 la_oenb[87]
*488 la_oenb[88]
*489 la_oenb[89]
*490 la_oenb[8]
*491 la_oenb[90]
*492 la_oenb[91]
*493 la_oenb[92]
*494 la_oenb[93]
*495 la_oenb[94]
*496 la_oenb[95]
*497 la_oenb[96]
*498 la_oenb[97]
*499 la_oenb[98]
*500 la_oenb[99]
*501 la_oenb[9]
*504 wb_clk_i
*505 wb_rst_i
*506 net128
*507 wbs_adr_i[0]
*508 wbs_adr_i[10]
*509 wbs_adr_i[11]
*510 wbs_adr_i[12]
*511 wbs_adr_i[13]
*512 wbs_adr_i[14]
*513 wbs_adr_i[15]
*514 wbs_adr_i[16]
*515 wbs_adr_i[17]
*516 wbs_adr_i[18]
*517 wbs_adr_i[19]
*518 wbs_adr_i[1]
*519 wbs_adr_i[20]
*520 wbs_adr_i[21]
*521 wbs_adr_i[22]
*522 wbs_adr_i[23]
*523 wbs_adr_i[24]
*524 wbs_adr_i[25]
*525 wbs_adr_i[26]
*526 wbs_adr_i[27]
*527 wbs_adr_i[28]
*528 wbs_adr_i[29]
*529 wbs_adr_i[2]
*530 wbs_adr_i[30]
*531 wbs_adr_i[31]
*532 wbs_adr_i[3]
*533 wbs_adr_i[4]
*534 wbs_adr_i[5]
*535 wbs_adr_i[6]
*536 wbs_adr_i[7]
*537 wbs_adr_i[8]
*538 wbs_adr_i[9]
*539 wbs_cyc_i
*540 wbs_dat_i[0]
*541 wbs_dat_i[10]
*542 wbs_dat_i[11]
*543 wbs_dat_i[12]
*544 wbs_dat_i[13]
*545 wbs_dat_i[14]
*546 wbs_dat_i[15]
*547 wbs_dat_i[16]
*548 wbs_dat_i[17]
*549 wbs_dat_i[18]
*550 wbs_dat_i[19]
*551 wbs_dat_i[1]
*552 wbs_dat_i[20]
*553 wbs_dat_i[21]
*554 wbs_dat_i[22]
*555 wbs_dat_i[23]
*556 wbs_dat_i[24]
*557 wbs_dat_i[25]
*558 wbs_dat_i[26]
*559 wbs_dat_i[27]
*560 wbs_dat_i[28]
*561 wbs_dat_i[29]
*562 wbs_dat_i[2]
*563 wbs_dat_i[30]
*564 wbs_dat_i[31]
*565 wbs_dat_i[3]
*566 wbs_dat_i[4]
*567 wbs_dat_i[5]
*568 wbs_dat_i[6]
*569 wbs_dat_i[7]
*570 wbs_dat_i[8]
*571 wbs_dat_i[9]
*572 net129
*573 net139
*574 net140
*575 net141
*576 net142
*577 net143
*578 net144
*579 net145
*580 net146
*581 net147
*582 net148
*583 net130
*584 net149
*585 net150
*586 net151
*587 net152
*588 net153
*589 net154
*590 net155
*591 net156
*592 net157
*593 net158
*594 net131
*595 net159
*596 net160
*597 net132
*598 net133
*599 net134
*600 net135
*601 net136
*602 net137
*603 net138
*604 wbs_sel_i[0]
*605 wbs_sel_i[1]
*606 wbs_sel_i[2]
*607 wbs_sel_i[3]
*608 wbs_stb_i
*609 wbs_we_i
*610 _000_
*611 _001_
*612 _002_
*613 _003_
*614 _004_
*615 _005_
*616 _006_
*617 _007_
*618 _008_
*619 _009_
*620 _010_
*621 _011_
*622 _012_
*623 _013_
*624 _014_
*625 _015_
*626 _016_
*627 _017_
*628 _018_
*629 _019_
*630 _020_
*631 _021_
*632 _022_
*633 _023_
*634 _024_
*635 _025_
*636 _026_
*637 _027_
*638 _028_
*639 _029_
*640 _030_
*641 _031_
*642 _032_
*643 _033_
*644 _034_
*645 _035_
*646 _036_
*647 _037_
*648 _038_
*649 _039_
*650 _040_
*651 _041_
*652 _042_
*653 _043_
*654 _044_
*655 _045_
*656 _046_
*657 _047_
*658 _048_
*659 _049_
*660 _050_
*661 _051_
*662 _052_
*663 _053_
*664 _054_
*665 _055_
*666 _056_
*667 _057_
*668 _058_
*669 _059_
*670 _060_
*671 _061_
*672 _062_
*673 _063_
*674 _064_
*675 _065_
*676 _066_
*677 _067_
*678 _068_
*679 _069_
*680 _070_
*681 _071_
*682 _072_
*683 _073_
*684 _074_
*685 _075_
*686 _076_
*687 _077_
*688 _078_
*689 _079_
*690 _080_
*691 _081_
*692 _082_
*693 _083_
*694 _084_
*695 _085_
*696 _086_
*697 instan\.A\[0\]
*698 instan\.A\[1\]
*699 instan\.A\[2\]
*700 instan\.A\[3\]
*701 instan\.Count\[0\]
*702 instan\.Count\[1\]
*703 instan\.Count\[2\]
*704 instan\.M_temp\[0\]
*705 instan\.M_temp\[1\]
*706 instan\.M_temp\[2\]
*707 instan\.M_temp\[3\]
*708 instan\.Q_minus_one
*709 instan\.Q_temp\[0\]
*710 instan\.Q_temp\[1\]
*711 instan\.Q_temp\[2\]
*712 instan\.Q_temp\[3\]
*713 net1
*714 net10
*715 net11
*716 net12
*717 net13
*718 net14
*719 net15
*720 net16
*721 net17
*722 net18
*723 net19
*724 net2
*725 net20
*726 net21
*727 net22
*728 net3
*729 net4
*730 net5
*731 net6
*732 net7
*733 net8
*734 net9
*735 ANTENNA__087__A
*736 ANTENNA__102__A
*737 ANTENNA__104__A
*738 ANTENNA__123__C1
*739 ANTENNA__135__B1
*740 ANTENNA__145__A
*741 ANTENNA__148__A
*742 ANTENNA__149__A2
*743 ANTENNA__152__C1
*744 ANTENNA__154__A2
*745 ANTENNA__156__A
*746 ANTENNA__157__B1
*747 ANTENNA__159__A
*748 ANTENNA__160__B1
*749 ANTENNA__161__A1
*750 ANTENNA__162__A
*751 ANTENNA__174__D
*752 ANTENNA__175__D
*753 ANTENNA__194__D
*754 ANTENNA__195__D
*755 ANTENNA__197__CLK
*756 ANTENNA_fanout22_A
*757 ANTENNA_input10_A
*758 ANTENNA_input11_A
*759 ANTENNA_input1_A
*760 ANTENNA_input2_A
*761 ANTENNA_input3_A
*762 ANTENNA_input4_A
*763 ANTENNA_input5_A
*764 ANTENNA_input6_A
*765 ANTENNA_input7_A
*766 ANTENNA_input8_A
*767 ANTENNA_input9_A
*768 ANTENNA_output12_A
*769 ANTENNA_output13_A
*770 ANTENNA_output14_A
*771 FILLER_0_1002
*772 FILLER_0_1009
*773 FILLER_0_1014
*774 FILLER_0_1021
*775 FILLER_0_1025
*776 FILLER_0_1029
*777 FILLER_0_1035
*778 FILLER_0_1037
*779 FILLER_0_1042
*780 FILLER_0_1049
*781 FILLER_0_1056
*782 FILLER_0_1065
*783 FILLER_0_1070
*784 FILLER_0_1077
*785 FILLER_0_1084
*786 FILLER_0_109
*787 FILLER_0_1093
*788 FILLER_0_1098
*789 FILLER_0_1105
*790 FILLER_0_1112
*791 FILLER_0_1121
*792 FILLER_0_1126
*793 FILLER_0_113
*794 FILLER_0_1133
*795 FILLER_0_1140
*796 FILLER_0_1149
*797 FILLER_0_1154
*798 FILLER_0_1161
*799 FILLER_0_1168
*800 FILLER_0_1177
*801 FILLER_0_1182
*802 FILLER_0_1189
*803 FILLER_0_1196
*804 FILLER_0_1205
*805 FILLER_0_1210
*806 FILLER_0_1214
*807 FILLER_0_1218
*808 FILLER_0_1227
*809 FILLER_0_1231
*810 FILLER_0_1233
*811 FILLER_0_1238
*812 FILLER_0_1245
*813 FILLER_0_125
*814 FILLER_0_1254
*815 FILLER_0_1261
*816 FILLER_0_1266
*817 FILLER_0_1273
*818 FILLER_0_1277
*819 FILLER_0_1281
*820 FILLER_0_1287
*821 FILLER_0_1289
*822 FILLER_0_1294
*823 FILLER_0_1301
*824 FILLER_0_1308
*825 FILLER_0_1317
*826 FILLER_0_1322
*827 FILLER_0_1329
*828 FILLER_0_1336
*829 FILLER_0_1345
*830 FILLER_0_1350
*831 FILLER_0_1357
*832 FILLER_0_1364
*833 FILLER_0_137
*834 FILLER_0_1373
*835 FILLER_0_1378
*836 FILLER_0_1385
*837 FILLER_0_1392
*838 FILLER_0_1401
*839 FILLER_0_1406
*840 FILLER_0_141
*841 FILLER_0_1413
*842 FILLER_0_1420
*843 FILLER_0_1429
*844 FILLER_0_1434
*845 FILLER_0_1441
*846 FILLER_0_1448
*847 FILLER_0_1457
*848 FILLER_0_1462
*849 FILLER_0_1466
*850 FILLER_0_1470
*851 FILLER_0_1479
*852 FILLER_0_1483
*853 FILLER_0_1485
*854 FILLER_0_1490
*855 FILLER_0_1497
*856 FILLER_0_15
*857 FILLER_0_1506
*858 FILLER_0_1513
*859 FILLER_0_1518
*860 FILLER_0_1525
*861 FILLER_0_1529
*862 FILLER_0_153
*863 FILLER_0_1533
*864 FILLER_0_1539
*865 FILLER_0_1541
*866 FILLER_0_1546
*867 FILLER_0_1553
*868 FILLER_0_1560
*869 FILLER_0_1569
*870 FILLER_0_1574
*871 FILLER_0_1581
*872 FILLER_0_1588
*873 FILLER_0_1597
*874 FILLER_0_1602
*875 FILLER_0_1609
*876 FILLER_0_1616
*877 FILLER_0_1625
*878 FILLER_0_1630
*879 FILLER_0_1637
*880 FILLER_0_1644
*881 FILLER_0_165
*882 FILLER_0_1653
*883 FILLER_0_1658
*884 FILLER_0_1665
*885 FILLER_0_1672
*886 FILLER_0_1681
*887 FILLER_0_1686
*888 FILLER_0_169
*889 FILLER_0_1693
*890 FILLER_0_1700
*891 FILLER_0_1709
*892 FILLER_0_1714
*893 FILLER_0_1726
*894 FILLER_0_1734
*895 FILLER_0_1737
*896 FILLER_0_1749
*897 FILLER_0_1761
*898 FILLER_0_1765
*899 FILLER_0_1777
*900 FILLER_0_1789
*901 FILLER_0_1793
*902 FILLER_0_1805
*903 FILLER_0_181
*904 FILLER_0_1817
*905 FILLER_0_1821
*906 FILLER_0_1833
*907 FILLER_0_1845
*908 FILLER_0_1849
*909 FILLER_0_1861
*910 FILLER_0_1873
*911 FILLER_0_1877
*912 FILLER_0_1889
*913 FILLER_0_1901
*914 FILLER_0_1905
*915 FILLER_0_1917
*916 FILLER_0_193
*917 FILLER_0_197
*918 FILLER_0_209
*919 FILLER_0_221
*920 FILLER_0_225
*921 FILLER_0_233
*922 FILLER_0_237
*923 FILLER_0_249
*924 FILLER_0_253
*925 FILLER_0_258
*926 FILLER_0_267
*927 FILLER_0_27
*928 FILLER_0_278
*929 FILLER_0_281
*930 FILLER_0_287
*931 FILLER_0_29
*932 FILLER_0_291
*933 FILLER_0_299
*934 FILLER_0_3
*935 FILLER_0_303
*936 FILLER_0_307
*937 FILLER_0_309
*938 FILLER_0_320
*939 FILLER_0_327
*940 FILLER_0_334
*941 FILLER_0_337
*942 FILLER_0_348
*943 FILLER_0_355
*944 FILLER_0_362
*945 FILLER_0_365
*946 FILLER_0_371
*947 FILLER_0_375
*948 FILLER_0_379
*949 FILLER_0_383
*950 FILLER_0_390
*951 FILLER_0_393
*952 FILLER_0_402
*953 FILLER_0_41
*954 FILLER_0_411
*955 FILLER_0_418
*956 FILLER_0_421
*957 FILLER_0_425
*958 FILLER_0_429
*959 FILLER_0_438
*960 FILLER_0_442
*961 FILLER_0_446
*962 FILLER_0_449
*963 FILLER_0_456
*964 FILLER_0_465
*965 FILLER_0_474
*966 FILLER_0_477
*967 FILLER_0_483
*968 FILLER_0_492
*969 FILLER_0_501
*970 FILLER_0_505
*971 FILLER_0_510
*972 FILLER_0_519
*973 FILLER_0_528
*974 FILLER_0_53
*975 FILLER_0_533
*976 FILLER_0_544
*977 FILLER_0_551
*978 FILLER_0_558
*979 FILLER_0_561
*980 FILLER_0_57
*981 FILLER_0_570
*982 FILLER_0_579
*983 FILLER_0_586
*984 FILLER_0_589
*985 FILLER_0_593
*986 FILLER_0_597
*987 FILLER_0_606
*988 FILLER_0_610
*989 FILLER_0_614
*990 FILLER_0_617
*991 FILLER_0_624
*992 FILLER_0_633
*993 FILLER_0_642
*994 FILLER_0_645
*995 FILLER_0_651
*996 FILLER_0_660
*997 FILLER_0_669
*998 FILLER_0_673
*999 FILLER_0_678
*1000 FILLER_0_687
*1001 FILLER_0_69
*1002 FILLER_0_696
*1003 FILLER_0_701
*1004 FILLER_0_712
*1005 FILLER_0_719
*1006 FILLER_0_726
*1007 FILLER_0_729
*1008 FILLER_0_740
*1009 FILLER_0_747
*1010 FILLER_0_754
*1011 FILLER_0_757
*1012 FILLER_0_768
*1013 FILLER_0_775
*1014 FILLER_0_782
*1015 FILLER_0_785
*1016 FILLER_0_791
*1017 FILLER_0_795
*1018 FILLER_0_799
*1019 FILLER_0_803
*1020 FILLER_0_81
*1021 FILLER_0_810
*1022 FILLER_0_813
*1023 FILLER_0_822
*1024 FILLER_0_831
*1025 FILLER_0_838
*1026 FILLER_0_841
*1027 FILLER_0_845
*1028 FILLER_0_849
*1029 FILLER_0_85
*1030 FILLER_0_858
*1031 FILLER_0_862
*1032 FILLER_0_866
*1033 FILLER_0_869
*1034 FILLER_0_876
*1035 FILLER_0_885
*1036 FILLER_0_894
*1037 FILLER_0_897
*1038 FILLER_0_903
*1039 FILLER_0_912
*1040 FILLER_0_921
*1041 FILLER_0_925
*1042 FILLER_0_930
*1043 FILLER_0_939
*1044 FILLER_0_948
*1045 FILLER_0_953
*1046 FILLER_0_958
*1047 FILLER_0_962
*1048 FILLER_0_966
*1049 FILLER_0_97
*1050 FILLER_0_975
*1051 FILLER_0_979
*1052 FILLER_0_981
*1053 FILLER_0_986
*1054 FILLER_0_993
*1055 FILLER_100_1005
*1056 FILLER_100_1017
*1057 FILLER_100_1029
*1058 FILLER_100_1035
*1059 FILLER_100_1037
*1060 FILLER_100_1049
*1061 FILLER_100_1061
*1062 FILLER_100_1073
*1063 FILLER_100_1085
*1064 FILLER_100_109
*1065 FILLER_100_1091
*1066 FILLER_100_1093
*1067 FILLER_100_1105
*1068 FILLER_100_1117
*1069 FILLER_100_1129
*1070 FILLER_100_1141
*1071 FILLER_100_1147
*1072 FILLER_100_1149
*1073 FILLER_100_1161
*1074 FILLER_100_1173
*1075 FILLER_100_1185
*1076 FILLER_100_1197
*1077 FILLER_100_1203
*1078 FILLER_100_1205
*1079 FILLER_100_121
*1080 FILLER_100_1217
*1081 FILLER_100_1229
*1082 FILLER_100_1241
*1083 FILLER_100_1253
*1084 FILLER_100_1259
*1085 FILLER_100_1261
*1086 FILLER_100_1273
*1087 FILLER_100_1285
*1088 FILLER_100_1297
*1089 FILLER_100_1309
*1090 FILLER_100_1315
*1091 FILLER_100_1317
*1092 FILLER_100_1329
*1093 FILLER_100_133
*1094 FILLER_100_1341
*1095 FILLER_100_1353
*1096 FILLER_100_1365
*1097 FILLER_100_1371
*1098 FILLER_100_1373
*1099 FILLER_100_1385
*1100 FILLER_100_139
*1101 FILLER_100_1397
*1102 FILLER_100_1409
*1103 FILLER_100_141
*1104 FILLER_100_1421
*1105 FILLER_100_1427
*1106 FILLER_100_1429
*1107 FILLER_100_1441
*1108 FILLER_100_1453
*1109 FILLER_100_1465
*1110 FILLER_100_1477
*1111 FILLER_100_1483
*1112 FILLER_100_1485
*1113 FILLER_100_1497
*1114 FILLER_100_15
*1115 FILLER_100_1509
*1116 FILLER_100_1521
*1117 FILLER_100_153
*1118 FILLER_100_1533
*1119 FILLER_100_1539
*1120 FILLER_100_1541
*1121 FILLER_100_1553
*1122 FILLER_100_1565
*1123 FILLER_100_1577
*1124 FILLER_100_1589
*1125 FILLER_100_1595
*1126 FILLER_100_1597
*1127 FILLER_100_1609
*1128 FILLER_100_1621
*1129 FILLER_100_1633
*1130 FILLER_100_1645
*1131 FILLER_100_165
*1132 FILLER_100_1651
*1133 FILLER_100_1653
*1134 FILLER_100_1665
*1135 FILLER_100_1677
*1136 FILLER_100_1689
*1137 FILLER_100_1701
*1138 FILLER_100_1707
*1139 FILLER_100_1709
*1140 FILLER_100_1721
*1141 FILLER_100_1733
*1142 FILLER_100_1745
*1143 FILLER_100_1757
*1144 FILLER_100_1763
*1145 FILLER_100_1765
*1146 FILLER_100_177
*1147 FILLER_100_1777
*1148 FILLER_100_1789
*1149 FILLER_100_1801
*1150 FILLER_100_1813
*1151 FILLER_100_1819
*1152 FILLER_100_1821
*1153 FILLER_100_1833
*1154 FILLER_100_1845
*1155 FILLER_100_1857
*1156 FILLER_100_1869
*1157 FILLER_100_1875
*1158 FILLER_100_1877
*1159 FILLER_100_1889
*1160 FILLER_100_189
*1161 FILLER_100_1901
*1162 FILLER_100_1913
*1163 FILLER_100_1925
*1164 FILLER_100_195
*1165 FILLER_100_197
*1166 FILLER_100_209
*1167 FILLER_100_221
*1168 FILLER_100_233
*1169 FILLER_100_245
*1170 FILLER_100_251
*1171 FILLER_100_253
*1172 FILLER_100_265
*1173 FILLER_100_27
*1174 FILLER_100_277
*1175 FILLER_100_289
*1176 FILLER_100_29
*1177 FILLER_100_3
*1178 FILLER_100_301
*1179 FILLER_100_307
*1180 FILLER_100_309
*1181 FILLER_100_321
*1182 FILLER_100_333
*1183 FILLER_100_345
*1184 FILLER_100_357
*1185 FILLER_100_363
*1186 FILLER_100_365
*1187 FILLER_100_377
*1188 FILLER_100_389
*1189 FILLER_100_401
*1190 FILLER_100_41
*1191 FILLER_100_413
*1192 FILLER_100_419
*1193 FILLER_100_421
*1194 FILLER_100_433
*1195 FILLER_100_445
*1196 FILLER_100_457
*1197 FILLER_100_469
*1198 FILLER_100_475
*1199 FILLER_100_477
*1200 FILLER_100_489
*1201 FILLER_100_501
*1202 FILLER_100_513
*1203 FILLER_100_525
*1204 FILLER_100_53
*1205 FILLER_100_531
*1206 FILLER_100_533
*1207 FILLER_100_545
*1208 FILLER_100_557
*1209 FILLER_100_569
*1210 FILLER_100_581
*1211 FILLER_100_587
*1212 FILLER_100_589
*1213 FILLER_100_601
*1214 FILLER_100_613
*1215 FILLER_100_625
*1216 FILLER_100_637
*1217 FILLER_100_643
*1218 FILLER_100_645
*1219 FILLER_100_65
*1220 FILLER_100_657
*1221 FILLER_100_669
*1222 FILLER_100_681
*1223 FILLER_100_693
*1224 FILLER_100_699
*1225 FILLER_100_701
*1226 FILLER_100_713
*1227 FILLER_100_725
*1228 FILLER_100_737
*1229 FILLER_100_749
*1230 FILLER_100_755
*1231 FILLER_100_757
*1232 FILLER_100_769
*1233 FILLER_100_77
*1234 FILLER_100_781
*1235 FILLER_100_793
*1236 FILLER_100_805
*1237 FILLER_100_811
*1238 FILLER_100_813
*1239 FILLER_100_825
*1240 FILLER_100_83
*1241 FILLER_100_837
*1242 FILLER_100_849
*1243 FILLER_100_85
*1244 FILLER_100_861
*1245 FILLER_100_867
*1246 FILLER_100_869
*1247 FILLER_100_881
*1248 FILLER_100_893
*1249 FILLER_100_905
*1250 FILLER_100_917
*1251 FILLER_100_923
*1252 FILLER_100_925
*1253 FILLER_100_937
*1254 FILLER_100_949
*1255 FILLER_100_961
*1256 FILLER_100_97
*1257 FILLER_100_973
*1258 FILLER_100_979
*1259 FILLER_100_981
*1260 FILLER_100_993
*1261 FILLER_101_1001
*1262 FILLER_101_1007
*1263 FILLER_101_1009
*1264 FILLER_101_1021
*1265 FILLER_101_1033
*1266 FILLER_101_1045
*1267 FILLER_101_105
*1268 FILLER_101_1057
*1269 FILLER_101_1063
*1270 FILLER_101_1065
*1271 FILLER_101_1077
*1272 FILLER_101_1089
*1273 FILLER_101_1101
*1274 FILLER_101_111
*1275 FILLER_101_1113
*1276 FILLER_101_1119
*1277 FILLER_101_1121
*1278 FILLER_101_113
*1279 FILLER_101_1133
*1280 FILLER_101_1145
*1281 FILLER_101_1157
*1282 FILLER_101_1169
*1283 FILLER_101_1175
*1284 FILLER_101_1177
*1285 FILLER_101_1189
*1286 FILLER_101_1201
*1287 FILLER_101_1213
*1288 FILLER_101_1225
*1289 FILLER_101_1231
*1290 FILLER_101_1233
*1291 FILLER_101_1245
*1292 FILLER_101_125
*1293 FILLER_101_1257
*1294 FILLER_101_1269
*1295 FILLER_101_1281
*1296 FILLER_101_1287
*1297 FILLER_101_1289
*1298 FILLER_101_1301
*1299 FILLER_101_1313
*1300 FILLER_101_1325
*1301 FILLER_101_1337
*1302 FILLER_101_1343
*1303 FILLER_101_1345
*1304 FILLER_101_1357
*1305 FILLER_101_1369
*1306 FILLER_101_137
*1307 FILLER_101_1381
*1308 FILLER_101_1393
*1309 FILLER_101_1399
*1310 FILLER_101_1401
*1311 FILLER_101_1413
*1312 FILLER_101_1425
*1313 FILLER_101_1437
*1314 FILLER_101_1449
*1315 FILLER_101_1455
*1316 FILLER_101_1457
*1317 FILLER_101_1469
*1318 FILLER_101_1481
*1319 FILLER_101_149
*1320 FILLER_101_1493
*1321 FILLER_101_15
*1322 FILLER_101_1505
*1323 FILLER_101_1511
*1324 FILLER_101_1513
*1325 FILLER_101_1525
*1326 FILLER_101_1537
*1327 FILLER_101_1549
*1328 FILLER_101_1561
*1329 FILLER_101_1567
*1330 FILLER_101_1569
*1331 FILLER_101_1581
*1332 FILLER_101_1593
*1333 FILLER_101_1605
*1334 FILLER_101_161
*1335 FILLER_101_1617
*1336 FILLER_101_1623
*1337 FILLER_101_1625
*1338 FILLER_101_1637
*1339 FILLER_101_1649
*1340 FILLER_101_1661
*1341 FILLER_101_167
*1342 FILLER_101_1673
*1343 FILLER_101_1679
*1344 FILLER_101_1681
*1345 FILLER_101_169
*1346 FILLER_101_1693
*1347 FILLER_101_1705
*1348 FILLER_101_1717
*1349 FILLER_101_1729
*1350 FILLER_101_1735
*1351 FILLER_101_1737
*1352 FILLER_101_1749
*1353 FILLER_101_1761
*1354 FILLER_101_1773
*1355 FILLER_101_1785
*1356 FILLER_101_1791
*1357 FILLER_101_1793
*1358 FILLER_101_1805
*1359 FILLER_101_181
*1360 FILLER_101_1817
*1361 FILLER_101_1829
*1362 FILLER_101_1841
*1363 FILLER_101_1847
*1364 FILLER_101_1849
*1365 FILLER_101_1861
*1366 FILLER_101_1873
*1367 FILLER_101_1885
*1368 FILLER_101_1897
*1369 FILLER_101_1903
*1370 FILLER_101_1905
*1371 FILLER_101_1917
*1372 FILLER_101_193
*1373 FILLER_101_205
*1374 FILLER_101_217
*1375 FILLER_101_223
*1376 FILLER_101_225
*1377 FILLER_101_237
*1378 FILLER_101_249
*1379 FILLER_101_261
*1380 FILLER_101_27
*1381 FILLER_101_273
*1382 FILLER_101_279
*1383 FILLER_101_281
*1384 FILLER_101_293
*1385 FILLER_101_3
*1386 FILLER_101_305
*1387 FILLER_101_317
*1388 FILLER_101_329
*1389 FILLER_101_335
*1390 FILLER_101_337
*1391 FILLER_101_349
*1392 FILLER_101_361
*1393 FILLER_101_373
*1394 FILLER_101_385
*1395 FILLER_101_39
*1396 FILLER_101_391
*1397 FILLER_101_393
*1398 FILLER_101_405
*1399 FILLER_101_417
*1400 FILLER_101_429
*1401 FILLER_101_441
*1402 FILLER_101_447
*1403 FILLER_101_449
*1404 FILLER_101_461
*1405 FILLER_101_473
*1406 FILLER_101_485
*1407 FILLER_101_497
*1408 FILLER_101_503
*1409 FILLER_101_505
*1410 FILLER_101_51
*1411 FILLER_101_517
*1412 FILLER_101_529
*1413 FILLER_101_541
*1414 FILLER_101_55
*1415 FILLER_101_553
*1416 FILLER_101_559
*1417 FILLER_101_561
*1418 FILLER_101_57
*1419 FILLER_101_573
*1420 FILLER_101_585
*1421 FILLER_101_597
*1422 FILLER_101_609
*1423 FILLER_101_615
*1424 FILLER_101_617
*1425 FILLER_101_629
*1426 FILLER_101_641
*1427 FILLER_101_653
*1428 FILLER_101_665
*1429 FILLER_101_671
*1430 FILLER_101_673
*1431 FILLER_101_685
*1432 FILLER_101_69
*1433 FILLER_101_697
*1434 FILLER_101_709
*1435 FILLER_101_721
*1436 FILLER_101_727
*1437 FILLER_101_729
*1438 FILLER_101_741
*1439 FILLER_101_753
*1440 FILLER_101_765
*1441 FILLER_101_777
*1442 FILLER_101_783
*1443 FILLER_101_785
*1444 FILLER_101_797
*1445 FILLER_101_809
*1446 FILLER_101_81
*1447 FILLER_101_821
*1448 FILLER_101_833
*1449 FILLER_101_839
*1450 FILLER_101_841
*1451 FILLER_101_853
*1452 FILLER_101_865
*1453 FILLER_101_877
*1454 FILLER_101_889
*1455 FILLER_101_895
*1456 FILLER_101_897
*1457 FILLER_101_909
*1458 FILLER_101_921
*1459 FILLER_101_93
*1460 FILLER_101_933
*1461 FILLER_101_945
*1462 FILLER_101_951
*1463 FILLER_101_953
*1464 FILLER_101_965
*1465 FILLER_101_977
*1466 FILLER_101_989
*1467 FILLER_102_1005
*1468 FILLER_102_1017
*1469 FILLER_102_1029
*1470 FILLER_102_1035
*1471 FILLER_102_1037
*1472 FILLER_102_1049
*1473 FILLER_102_1061
*1474 FILLER_102_1073
*1475 FILLER_102_1085
*1476 FILLER_102_109
*1477 FILLER_102_1091
*1478 FILLER_102_1093
*1479 FILLER_102_1105
*1480 FILLER_102_1117
*1481 FILLER_102_1129
*1482 FILLER_102_1141
*1483 FILLER_102_1147
*1484 FILLER_102_1149
*1485 FILLER_102_1161
*1486 FILLER_102_1173
*1487 FILLER_102_1185
*1488 FILLER_102_1197
*1489 FILLER_102_1203
*1490 FILLER_102_1205
*1491 FILLER_102_121
*1492 FILLER_102_1217
*1493 FILLER_102_1229
*1494 FILLER_102_1241
*1495 FILLER_102_1253
*1496 FILLER_102_1259
*1497 FILLER_102_1261
*1498 FILLER_102_1273
*1499 FILLER_102_1285
*1500 FILLER_102_1297
*1501 FILLER_102_1309
*1502 FILLER_102_1315
*1503 FILLER_102_1317
*1504 FILLER_102_1329
*1505 FILLER_102_133
*1506 FILLER_102_1341
*1507 FILLER_102_1353
*1508 FILLER_102_1365
*1509 FILLER_102_1371
*1510 FILLER_102_1373
*1511 FILLER_102_1385
*1512 FILLER_102_139
*1513 FILLER_102_1397
*1514 FILLER_102_1409
*1515 FILLER_102_141
*1516 FILLER_102_1421
*1517 FILLER_102_1427
*1518 FILLER_102_1429
*1519 FILLER_102_1441
*1520 FILLER_102_1453
*1521 FILLER_102_1465
*1522 FILLER_102_1477
*1523 FILLER_102_1483
*1524 FILLER_102_1485
*1525 FILLER_102_1497
*1526 FILLER_102_15
*1527 FILLER_102_1509
*1528 FILLER_102_1521
*1529 FILLER_102_153
*1530 FILLER_102_1533
*1531 FILLER_102_1539
*1532 FILLER_102_1541
*1533 FILLER_102_1553
*1534 FILLER_102_1565
*1535 FILLER_102_1577
*1536 FILLER_102_1589
*1537 FILLER_102_1595
*1538 FILLER_102_1597
*1539 FILLER_102_1609
*1540 FILLER_102_1621
*1541 FILLER_102_1633
*1542 FILLER_102_1645
*1543 FILLER_102_165
*1544 FILLER_102_1651
*1545 FILLER_102_1653
*1546 FILLER_102_1665
*1547 FILLER_102_1677
*1548 FILLER_102_1689
*1549 FILLER_102_1701
*1550 FILLER_102_1707
*1551 FILLER_102_1709
*1552 FILLER_102_1721
*1553 FILLER_102_1733
*1554 FILLER_102_1745
*1555 FILLER_102_1757
*1556 FILLER_102_1763
*1557 FILLER_102_1765
*1558 FILLER_102_177
*1559 FILLER_102_1777
*1560 FILLER_102_1789
*1561 FILLER_102_1801
*1562 FILLER_102_1813
*1563 FILLER_102_1819
*1564 FILLER_102_1821
*1565 FILLER_102_1833
*1566 FILLER_102_1845
*1567 FILLER_102_1857
*1568 FILLER_102_1869
*1569 FILLER_102_1875
*1570 FILLER_102_1877
*1571 FILLER_102_1889
*1572 FILLER_102_189
*1573 FILLER_102_1901
*1574 FILLER_102_1913
*1575 FILLER_102_1925
*1576 FILLER_102_195
*1577 FILLER_102_197
*1578 FILLER_102_209
*1579 FILLER_102_221
*1580 FILLER_102_233
*1581 FILLER_102_245
*1582 FILLER_102_251
*1583 FILLER_102_253
*1584 FILLER_102_265
*1585 FILLER_102_27
*1586 FILLER_102_277
*1587 FILLER_102_289
*1588 FILLER_102_29
*1589 FILLER_102_3
*1590 FILLER_102_301
*1591 FILLER_102_307
*1592 FILLER_102_309
*1593 FILLER_102_321
*1594 FILLER_102_333
*1595 FILLER_102_345
*1596 FILLER_102_357
*1597 FILLER_102_363
*1598 FILLER_102_365
*1599 FILLER_102_377
*1600 FILLER_102_389
*1601 FILLER_102_401
*1602 FILLER_102_41
*1603 FILLER_102_413
*1604 FILLER_102_419
*1605 FILLER_102_421
*1606 FILLER_102_433
*1607 FILLER_102_445
*1608 FILLER_102_457
*1609 FILLER_102_469
*1610 FILLER_102_475
*1611 FILLER_102_477
*1612 FILLER_102_489
*1613 FILLER_102_501
*1614 FILLER_102_513
*1615 FILLER_102_525
*1616 FILLER_102_53
*1617 FILLER_102_531
*1618 FILLER_102_533
*1619 FILLER_102_545
*1620 FILLER_102_557
*1621 FILLER_102_569
*1622 FILLER_102_581
*1623 FILLER_102_587
*1624 FILLER_102_589
*1625 FILLER_102_601
*1626 FILLER_102_613
*1627 FILLER_102_625
*1628 FILLER_102_637
*1629 FILLER_102_643
*1630 FILLER_102_645
*1631 FILLER_102_65
*1632 FILLER_102_657
*1633 FILLER_102_669
*1634 FILLER_102_681
*1635 FILLER_102_693
*1636 FILLER_102_699
*1637 FILLER_102_701
*1638 FILLER_102_713
*1639 FILLER_102_725
*1640 FILLER_102_737
*1641 FILLER_102_749
*1642 FILLER_102_755
*1643 FILLER_102_757